@<TRIPOS>MOLECULE
TET
44 45 1 0 0
SMALL
USER_CHARGES

@<TRIPOS>ATOM
      1 N          -3.1110    0.1124    0.0515 N         1 TET         0.0000
      2 CA         -2.9986   -1.0642   -0.8206 C         1 TET         0.0000
      3 C          -4.3919   -1.6911   -1.0679 C         1 TET         0.0000
      4 O          -4.6325   -2.8828   -0.8894 O         1 TET         0.0000
      5 CB         -2.0432   -2.1158   -0.2280 C         1 TET         0.0000
      6 CG         -0.6339   -1.6058   -0.0214 C         1 TET         0.0000
      7 CD1        -0.1180   -1.4431    1.2677 C         1 TET         0.0000
      8 CD2         0.1789   -1.2903   -1.1142 C         1 TET         0.0000
      9 CE1         1.1836   -0.9637    1.4576 C         1 TET         0.0000
     10 CE2         1.4796   -0.8108   -0.9188 C         1 TET         0.0000
     11 CZ          2.0152   -0.6333    0.3707 C         1 TET         0.0000
     12 CT3         3.3833   -0.1276    0.5739 C         1 TET         0.0000
     13 NT2         4.1427    0.1566   -0.5053 N         1 TET         0.0000
     14 NT1         5.4055    0.6249   -0.3185 N         1 TET         0.0000
     15 CT6         5.8536    0.7829    0.9420 C         1 TET         0.0000
     16 NT5         5.0994    0.5086    2.0241 N         1 TET         0.0000
     17 NT4         3.8371    0.0403    1.8343 N         1 TET         0.0000
     18 CX1         7.2350    1.3234    1.1492 C         1 TET         0.0000
     19 CX2         7.2279    2.8414    1.2231 C         1 TET         0.0000
     20 H          -3.1357   -0.0437    1.0508 H         1 TET         0.0000
     21 HA         -2.6247   -0.7335   -1.7983 H         1 TET         0.0000
     22 HB2        -2.4436   -2.4814    0.7274 H         1 TET         0.0000
     23 HB3        -1.9934   -2.9948   -0.8844 H         1 TET         0.0000
     24 HD1        -0.7190   -1.6907    2.1401 H         1 TET         0.0000
     25 HD2        -0.1882   -1.4144   -2.1312 H         1 TET         0.0000
     26 HE1         1.5467   -0.8528    2.4792 H         1 TET         0.0000
     27 HE2         2.0775   -0.5751   -1.7991 H         1 TET         0.0000
     28 HX1         7.6539    0.9093    2.0733 H         1 TET         0.0000
     29 HX2         7.8820    0.9953    0.3278 H         1 TET         0.0000
     30 HX3         6.6067    3.1952    2.0530 H         1 TET         0.0000
     31 HX4         8.2442    3.2185    1.3746 H         1 TET         0.0000
     32 HX5         6.8359    3.2816    0.2998 H         1 TET         0.0000
     33 CAY        -3.4320    1.3545   -0.4332 C         1 TET         0.0000
     34 OAY        -3.7028    1.5594   -1.6132 O         1 TET         0.0000
     35 CAZ        -3.4822    2.4371    0.6089 C         1 TET         0.0000
     36 HZ1        -3.0236    3.3442    0.2058 H         1 TET         0.0000
     37 HZ2        -2.9335    2.1486    1.5100 H         1 TET         0.0000
     38 HZ3        -4.5246    2.6346    0.8712 H         1 TET         0.0000
     39 NNT        -5.3233   -0.8124   -1.5842 N         1 TET         0.0000
     40 HNT        -4.9800    0.0943   -1.9048 H         1 TET         0.0000
     41 CNT        -6.6213   -1.2533   -2.0207 C         1 TET         0.0000
     42 HT1        -7.0305   -1.9845   -1.3186 H         1 TET         0.0000
     43 HT2        -7.2809   -0.3849   -2.0827 H         1 TET         0.0000
     44 HT3        -6.5204   -1.7132   -3.0072 H         1 TET         0.0000
@<TRIPOS>BOND
     1     1     2 1
     2     2     3 1
     3     3     4 2
     4     2     5 1
     5     5     6 1
     6     6     7 ar
     7     7     9 ar
     8     9    11 ar
     9    11    10 ar
    10    10     8 ar
    11     8     6 ar
    12    11    12 1
    13    12    13 ar
    14    13    14 ar
    15    14    15 ar
    16    15    16 ar
    17    16    17 ar
    18    17    12 ar
    19    15    18 1
    20    18    19 1
    21     1    20 1
    22     2    21 1
    23     5    22 1
    24     5    23 1
    25     7    24 1
    26     8    25 1
    27     9    26 1
    28    10    27 1
    29    18    28 1
    30    18    29 1
    31    19    30 1
    32    19    31 1
    33    19    32 1
    34     1    33 1
    35    33    34 2
    36    33    35 1
    37    35    36 1
    38    35    37 1
    39    35    38 1
    40     3    39 1
    41    39    40 1
    42    39    41 1
    43    41    42 1
    44    41    43 1
    45    41    44 1
