@<TRIPOS>MOLECULE
DNL
35 34 1 0 0
SMALL
USER_CHARGES

@<TRIPOS>ATOM
      1 N          -3.3963   -0.6712    0.8677 N         1 DNL         0.0000
      2 C1         -3.0448   -1.8228    0.0633 C         1 DNL         0.0000
      3 C2         -2.6134   -1.4456   -1.3550 C         1 DNL         0.0000
      4 C3         -1.4565   -0.4428   -1.4361 C         1 DNL         0.0000
      5 C4         -0.1788   -0.9238   -0.7471 C         1 DNL         0.0000
      6 C5          0.9460    0.0993   -0.8925 C         1 DNL         0.0000
      7 C6          2.1972   -0.3353   -0.1405 C         1 DNL         0.0000
      8 OL          3.1723    0.6817   -0.2640 O         1 DNL         0.0000
      9 HN         -2.6434   -0.1815    1.3366 H         1 DNL         0.0000
     10 H11        -3.9107   -2.4926    0.0112 H         1 DNL         0.0000
     11 H12        -2.2488   -2.3588    0.5891 H         1 DNL         0.0000
     12 H21        -3.4706   -1.0182   -1.8902 H         1 DNL         0.0000
     13 H22        -2.3355   -2.3608   -1.8918 H         1 DNL         0.0000
     14 H31        -1.7695    0.5158   -1.0048 H         1 DNL         0.0000
     15 H32        -1.2437   -0.2500   -2.4951 H         1 DNL         0.0000
     16 H41        -0.3676   -1.0904    0.3191 H         1 DNL         0.0000
     17 H42         0.1352   -1.8827   -1.1764 H         1 DNL         0.0000
     18 H51         1.1891    0.2529   -1.9512 H         1 DNL         0.0000
     19 H52         0.6199    1.0763   -0.5139 H         1 DNL         0.0000
     20 H61         2.5971   -1.2633   -0.5624 H         1 DNL         0.0000
     21 H62         1.9602   -0.5055    0.9156 H         1 DNL         0.0000
     22 CAY        -4.6335   -0.0766    0.7921 C         1 DNL         0.0000
     23 OAY        -5.5592   -0.5003    0.1072 O         1 DNL         0.0000
     24 CAZ        -4.7638    1.1722    1.6224 C         1 DNL         0.0000
     25 HZ1        -4.7297    2.0442    0.9643 H         1 DNL         0.0000
     26 HZ2        -5.7182    1.1491    2.1559 H         1 DNL         0.0000
     27 HZ3        -3.9620    1.2510    2.3619 H         1 DNL         0.0000
     28 P           4.3517    0.6292    0.8515 P         1 DNL         0.0000
     29 OP1         3.7689    1.0508    2.1773 O         1 DNL         0.0000
     30 OP2         5.0967   -0.6727    0.6974 O         1 DNL        -1.0000
     31 O5C         5.2824    1.8337    0.2865 O         1 DNL         0.0000
     32 C5C         6.4492    2.0791    1.0386 C         1 DNL         0.0000
     33 H5A         6.9967    2.9046    0.5767 H         1 DNL         0.0000
     34 H5B         7.0919    1.1944    1.0463 H         1 DNL         0.0000
     35 H5C         6.1914    2.3606    2.0633 H         1 DNL         0.0000
@<TRIPOS>BOND
     1     1     2 1
     2     2     3 1
     3     3     4 1
     4     4     5 1
     5     5     6 1
     6     6     7 1
     7     7     8 1
     8     1     9 1
     9     2    10 1
    10     2    11 1
    11     3    12 1
    12     3    13 1
    13     4    14 1
    14     4    15 1
    15     5    16 1
    16     5    17 1
    17     6    18 1
    18     6    19 1
    19     7    20 1
    20     7    21 1
    21     1    22 1
    22    22    23 2
    23    22    24 1
    24    24    25 1
    25    24    26 1
    26    24    27 1
    27     8    28 1
    28    28    29 2
    29    28    30 1
    30    28    31 1
    31    31    32 1
    32    32    33 1
    33    32    34 1
    34    32    35 1
