@<TRIPOS>MOLECULE
DNH
28 27 1 0 0
SMALL
USER_CHARGES

@<TRIPOS>ATOM
      1 N          -2.4448    0.0361   -0.2308 N         1 DNH         0.0000
      2 C1         -1.7616   -0.7980   -1.1986 C         1 DNH         0.0000
      3 C2         -0.5429   -1.4954   -0.5999 C         1 DNH         0.0000
      4 C3          0.5643   -0.5077   -0.2171 C         1 DNH         0.0000
      5 C4          1.7963   -1.2397    0.3202 C         1 DNH         0.0000
      6 C5          2.8847   -0.2968    0.8340 C         1 DNH         0.0000
      7 C6          3.5010    0.5782   -0.2492 C         1 DNH         0.0000
      8 OL          4.5625    1.3309    0.3239 O         1 DNH         0.0000
      9 HN         -2.5624   -0.3285    0.7057 H         1 DNH         0.0000
     10 HOL         4.9337    1.8846   -0.3843 H         1 DNH         0.0000
     11 H11        -1.4747   -0.1930   -2.0661 H         1 DNH         0.0000
     12 H12        -2.4852   -1.5457   -1.5424 H         1 DNH         0.0000
     13 H21        -0.1519   -2.2086   -1.3355 H         1 DNH         0.0000
     14 H22        -0.8423   -2.0732    0.2832 H         1 DNH         0.0000
     15 H31         0.1949    0.1898    0.5438 H         1 DNH         0.0000
     16 H32         0.8357    0.0847   -1.0981 H         1 DNH         0.0000
     17 H41         1.4932   -1.8947    1.1464 H         1 DNH         0.0000
     18 H42         2.2113   -1.8883   -0.4609 H         1 DNH         0.0000
     19 H51         2.4864    0.3388    1.6348 H         1 DNH         0.0000
     20 H52         3.6785   -0.8928    1.3023 H         1 DNH         0.0000
     21 H61         2.7697    1.2802   -0.6596 H         1 DNH         0.0000
     22 H62         3.9075   -0.0327   -1.0612 H         1 DNH         0.0000
     23 CAY        -3.3142    1.0220   -0.6435 C         1 DNH         0.0000
     24 OAY        -3.4961    1.3264   -1.8174 O         1 DNH         0.0000
     25 CAZ        -4.0484    1.7009    0.4815 C         1 DNH         0.0000
     26 HZ1        -5.0755    1.3285    0.5151 H         1 DNH         0.0000
     27 HZ2        -4.0522    2.7803    0.3065 H         1 DNH         0.0000
     28 HZ3        -3.5675    1.5138    1.4458 H         1 DNH         0.0000
@<TRIPOS>BOND
     1     1     2 1
     2     2     3 1
     3     3     4 1
     4     4     5 1
     5     5     6 1
     6     6     7 1
     7     7     8 1
     8     1     9 1
     9     8    10 1
    10     2    11 1
    11     2    12 1
    12     3    13 1
    13     3    14 1
    14     4    15 1
    15     4    16 1
    16     5    17 1
    17     5    18 1
    18     6    19 1
    19     6    20 1
    20     7    21 1
    21     7    22 1
    22     1    23 1
    23    23    24 2
    24    23    25 1
    25    25    26 1
    26    25    27 1
    27    25    28 1
