@<TRIPOS>MOLECULE
TDP
76 79 1 0 0
SMALL
USER_CHARGES

@<TRIPOS>ATOM
      1 N          -4.4202    0.4163   -1.6003 N         1 TDP         0.0000
      2 CA         -4.8384   -0.9017   -2.1135 C         1 TDP         0.0000
      3 C          -6.2059   -0.8930   -2.8359 C         1 TDP         0.0000
      4 O          -6.8620   -1.9141   -3.0291 O         1 TDP         0.0000
      5 CB         -4.7813   -2.0321   -1.0678 C         1 TDP         0.0000
      6 CG         -3.4315   -2.1456   -0.3901 C         1 TDP         0.0000
      7 CD1        -3.2765   -1.7389    0.9439 C         1 TDP         0.0000
      8 CD2        -2.3250   -2.6560   -1.0855 C         1 TDP         0.0000
      9 CE1        -2.0317   -1.8216    1.5683 C         1 TDP         0.0000
     10 CE2        -1.0773   -2.7377   -0.4649 C         1 TDP         0.0000
     11 CZ         -0.9312   -2.2952    0.8520 C         1 TDP         0.0000
     12 CP3         0.3869   -2.3872    1.5267 C         1 TDP         0.0000
     13 NP2         0.4553   -3.1882    2.5423 N         1 TDP         0.0000
     14 NP1         1.6827   -3.4633    3.1187 N         1 TDP         0.0000
     15 CP6         2.6682   -2.6343    2.9837 C         1 TDP         0.0000
     16 CQ5         2.5356   -1.3343    2.1847 C         1 TDP         0.0000
     17 CQ4         1.5969   -1.6148    0.9903 C         1 TDP         0.0000
     18 CX1         3.9680   -2.9517    3.7183 C         1 TDP         0.0000
     19 CX2         3.9374   -4.2356    4.5324 C         1 TDP         0.0000
     20 CO1         1.5670    1.6677    1.7416 C         1 TDP         0.0000
     21 CO2         0.6609    0.8360    0.8809 C         1 TDP         0.0000
     22 CO3         1.2278   -0.3755    0.1429 C         1 TDP         0.0000
     23 CO6         3.9157   -0.7595    1.7917 C         1 TDP         0.0000
     24 CO7         3.9571    0.6291    1.1520 C         1 TDP         0.0000
     25 CO8         3.0824    1.6074    1.8588 C         1 TDP         0.0000
     26 CO9         2.4292    2.7804    1.1589 C         1 TDP         0.0000
     27 CM          2.5581    3.0357   -0.3108 C         1 TDP         0.0000
     28 OM          3.8494    3.6029   -0.5503 O         1 TDP         0.0000
     29 CN          4.1047    3.8388   -1.8591 C         1 TDP         0.0000
     30 ON          3.3415    3.6004   -2.7824 O         1 TDP         0.0000
     31 H          -3.4280    0.6034   -1.6747 H         1 TDP         0.0000
     32 HA         -4.1103   -1.1233   -2.9061 H         1 TDP         0.0000
     33 HB2        -5.5656   -1.8951   -0.3128 H         1 TDP         0.0000
     34 HB3        -5.0067   -2.9969   -1.5416 H         1 TDP         0.0000
     35 HD1        -4.1305   -1.3664    1.5079 H         1 TDP         0.0000
     36 HD2        -2.4330   -3.0090   -2.1093 H         1 TDP         0.0000
     37 HE1        -1.9241   -1.5259    2.6092 H         1 TDP         0.0000
     38 HE2        -0.2323   -3.1572   -1.0043 H         1 TDP         0.0000
     39 HX1         4.7733   -3.0264    2.9804 H         1 TDP         0.0000
     40 HX2         4.1887   -2.1151    4.3900 H         1 TDP         0.0000
     41 HX3         4.9003   -4.3921    5.0288 H         1 TDP         0.0000
     42 HX4         3.7394   -5.1035    3.8947 H         1 TDP         0.0000
     43 HX5         3.1609   -4.1966    5.3035 H         1 TDP         0.0000
     44 HQ4         2.1023   -2.3247    0.3184 H         1 TDP         0.0000
     45 HQ5         2.0480   -0.6501    2.8904 H         1 TDP         0.0000
     46 HO1         1.0367    1.9316    2.6572 H         1 TDP         0.0000
     47 HO2A        0.1979    1.5012    0.1404 H         1 TDP         0.0000
     48 HO2B       -0.1714    0.5004    1.5106 H         1 TDP         0.0000
     49 HO3A        0.4788   -0.6605   -0.6032 H         1 TDP         0.0000
     50 HO3B        2.0699   -0.0933   -0.4866 H         1 TDP         0.0000
     51 HO6A        4.4387   -1.4656    1.1341 H         1 TDP         0.0000
     52 HO6B        4.5306   -0.6825    2.6968 H         1 TDP         0.0000
     53 HO7A        3.7775    0.5727    0.0792 H         1 TDP         0.0000
     54 HO7B        4.9897    0.9978    1.2205 H         1 TDP         0.0000
     55 HO8         3.4886    1.8119    2.8485 H         1 TDP         0.0000
     56 HO9         2.4326    3.7251    1.6974 H         1 TDP         0.0000
     57 HM1         2.4399    2.1231   -0.9015 H         1 TDP         0.0000
     58 HM2         1.7859    3.7529   -0.6135 H         1 TDP         0.0000
     59 CAY        -5.0674    1.0109   -0.5402 C         1 TDP         0.0000
     60 OAY        -6.1528    0.6362   -0.1144 O         1 TDP         0.0000
     61 CAZ        -4.3328    2.1827    0.0533 C         1 TDP         0.0000
     62 HZ1        -3.5244    2.5245   -0.5992 H         1 TDP         0.0000
     63 HZ2        -5.0332    3.0109    0.1918 H         1 TDP         0.0000
     64 HZ3        -3.9119    1.8887    1.0183 H         1 TDP         0.0000
     65 NNT        -6.5364    0.3256   -3.4017 N         1 TDP         0.0000
     66 HNT        -6.0951    1.1275   -2.9682 H         1 TDP         0.0000
     67 CNT        -7.8250    0.5154   -4.0152 C         1 TDP         0.0000
     68 HT1        -8.5888    0.5363   -3.2332 H         1 TDP         0.0000
     69 HT2        -8.0363   -0.3038   -4.7077 H         1 TDP         0.0000
     70 HT3        -7.8174    1.4661   -4.5529 H         1 TDP         0.0000
     71 NCP         5.3511    4.3715   -1.9778 N         1 TDP         0.0000
     72 HCP         5.8997    4.3994   -1.1299 H         1 TDP         0.0000
     73 CCP         5.9662    4.6169   -3.2529 C         1 TDP         0.0000
     74 HC1         6.4360    3.6914   -3.5959 H         1 TDP         0.0000
     75 HC2         5.2202    4.9383   -3.9845 H         1 TDP         0.0000
     76 HC3         6.7265    5.3914   -3.1291 H         1 TDP         0.0000
@<TRIPOS>BOND
     1     1     2 1
     2     2     3 1
     3     3     4 2
     4     2     5 1
     5     5     6 1
     6     6     7 ar
     7     7     9 ar
     8     9    11 ar
     9    11    10 ar
    10    10     8 ar
    11     8     6 ar
    12    11    12 1
    13    12    13 2
    14    13    14 1
    15    14    15 2
    16    15    16 1
    17    16    17 1
    18    17    12 1
    19    15    18 1
    20    18    19 1
    21    17    22 1
    22    22    21 1
    23    21    20 1
    24    16    23 1
    25    23    24 1
    26    24    25 1
    27    20    25 1
    28    20    26 1
    29    25    26 1
    30    26    27 1
    31    27    28 1
    32    28    29 1
    33    29    30 2
    34     1    31 1
    35     2    32 1
    36     5    33 1
    37     5    34 1
    38     7    35 1
    39     8    36 1
    40     9    37 1
    41    10    38 1
    42    18    39 1
    43    18    40 1
    44    19    41 1
    45    19    42 1
    46    19    43 1
    47    17    44 1
    48    16    45 1
    49    20    46 1
    50    21    47 1
    51    21    48 1
    52    22    49 1
    53    22    50 1
    54    23    51 1
    55    23    52 1
    56    24    53 1
    57    24    54 1
    58    25    55 1
    59    26    56 1
    60    27    57 1
    61    27    58 1
    62     1    59 1
    63    59    60 2
    64    59    61 1
    65    61    62 1
    66    61    63 1
    67    61    64 1
    68     3    65 1
    69    65    66 1
    70    65    67 1
    71    67    68 1
    72    67    69 1
    73    67    70 1
    74    29    71 1
    75    71    72 1
    76    71    73 1
    77    73    74 1
    78    73    75 1
    79    73    76 1
